@<TRIPOS>MOLECULE
PLM
   50    49     1     0     0
SMALL
bcc


@<TRIPOS>ATOM
      1 C1          18.6430     8.3410     9.1580 c        132 PLM       0.634100
      2 O1          17.4750     8.7270     8.8850 oh       132 PLM      -0.612100
      3 O2          19.4720     8.9600     9.8570 o        132 PLM      -0.551000
      4 C2          18.9930     6.9740     8.5320 c3       132 PLM      -0.126400
      5 C3          19.9660     6.1440     9.3720 c3       132 PLM      -0.079400
      6 C4          21.3620     6.1440     8.7110 c3       132 PLM      -0.078400
      7 C5          21.8450     7.5610     8.3830 c3       132 PLM      -0.079400
      8 C6          22.5010     8.2400     9.5930 c3       132 PLM      -0.080400
      9 C7          24.0500     8.2470     9.6080 c3       132 PLM      -0.077400
     10 C8          24.6950     9.4680    10.2780 c3       132 PLM      -0.078400
     11 C9          24.0710    10.8230     9.8980 c3       132 PLM      -0.080400
     12 CA          25.0410    11.9970     9.7040 c3       132 PLM      -0.078400
     13 CB          24.8600    13.0970    10.7730 c3       132 PLM      -0.077400
     14 CC          24.8580    12.5800    12.2240 c3       132 PLM      -0.079400
     15 CD          26.0840    11.7170    12.5600 c3       132 PLM      -0.078400
     16 CE          27.4900    12.2860    12.2980 c3       132 PLM      -0.078400
     17 CF          28.0950    13.0510    13.4740 c3       132 PLM      -0.080400
     18 CG          29.5180    12.6390    13.8790 c3       132 PLM      -0.093100
     19 HG3         29.5250    11.5870    14.1650 hc       132 PLM       0.031700
     20 HG2         30.1940    12.7910    13.0380 hc       132 PLM       0.031700
     21 HG1         29.8460    13.2460    14.7220 hc       132 PLM       0.031700
     22 HF2         28.1010    14.1130    13.2280 hc       132 PLM       0.038700
     23 HF1         27.4420    12.9280    14.3380 hc       132 PLM       0.038700
     24 HE2         28.1570    11.4650    12.0340 hc       132 PLM       0.038700
     25 HE1         27.4440    12.9500    11.4350 hc       132 PLM       0.038700
     26 HD2         26.0250    11.4590    13.6170 hc       132 PLM       0.038700
     27 HD1         25.9950    10.7870    11.9990 hc       132 PLM       0.038700
     28 HC2         24.8220    13.4300    12.9060 hc       132 PLM       0.040700
     29 HC1         23.9530    11.9960    12.3940 hc       132 PLM       0.040700
     30 HB2         25.6600    13.8290    10.6620 hc       132 PLM       0.039200
     31 HB1         23.9220    13.6190    10.5850 hc       132 PLM       0.039200
     32 HA2         26.0660    11.6270     9.7380 hc       132 PLM       0.038700
     33 HA1         24.8910    12.4280     8.7140 hc       132 PLM       0.038700
     34 H92         23.5070    10.6910     8.9750 hc       132 PLM       0.041200
     35 H91         23.3550    11.0970    10.6730 hc       132 PLM       0.041200
     36 H82         24.6320     9.3460    11.3590 hc       132 PLM       0.038700
     37 H81         25.7540     9.4880    10.0210 hc       132 PLM       0.038700
     38 H72         24.3960     7.3480    10.1190 hc       132 PLM       0.038700
     39 H71         24.4070     8.1870     8.5800 hc       132 PLM       0.038700
     40 H62         22.1520     9.2720     9.6400 hc       132 PLM       0.042700
     41 H61         22.1500     7.7440    10.4980 hc       132 PLM       0.042700
     42 H52         22.5580     7.5190     7.5600 hc       132 PLM       0.039700
     43 H51         21.0010     8.1620     8.0430 hc       132 PLM       0.039700
     44 H42         22.0780     5.6630     9.3770 hc       132 PLM       0.043200
     45 H41         21.3300     5.5520     7.7960 hc       132 PLM       0.043200
     46 H32         20.0310     6.5540    10.3800 hc       132 PLM       0.058200
     47 H31         19.5990     5.1220     9.4660 hc       132 PLM       0.058200
     48 H22         18.0750     6.4050     8.3870 hc       132 PLM       0.080200
     49 H21         19.4260     7.1360     7.5450 hc       132 PLM       0.080200
     50 H           16.8680     8.4710     9.6100 ho       132 PLM       0.443000
@<TRIPOS>BOND
     1     1     2 1   
     2     1     3 2   
     3     1     4 1   
     4     2    50 1   
     5     4     5 1   
     6     4    48 1   
     7     4    49 1   
     8     5     6 1   
     9     5    46 1   
    10     5    47 1   
    11     6     7 1   
    12     6    44 1   
    13     6    45 1   
    14     7     8 1   
    15     7    42 1   
    16     7    43 1   
    17     8     9 1   
    18     8    40 1   
    19     8    41 1   
    20     9    10 1   
    21     9    38 1   
    22     9    39 1   
    23    10    11 1   
    24    10    36 1   
    25    10    37 1   
    26    11    12 1   
    27    11    34 1   
    28    11    35 1   
    29    12    13 1   
    30    12    32 1   
    31    12    33 1   
    32    13    14 1   
    33    13    30 1   
    34    13    31 1   
    35    14    15 1   
    36    14    28 1   
    37    14    29 1   
    38    15    16 1   
    39    15    26 1   
    40    15    27 1   
    41    16    17 1   
    42    16    24 1   
    43    16    25 1   
    44    17    18 1   
    45    17    22 1   
    46    17    23 1   
    47    18    19 1   
    48    18    20 1   
    49    18    21 1   
@<TRIPOS>SUBSTRUCTURE
     1 PLM         1 TEMP              0 ****  ****    0 ROOT
