@<TRIPOS>MOLECULE
PLM
   50    49     1     0     0
SMALL
bcc


@<TRIPOS>ATOM
      1 C1          18.8030     5.4620     7.6090 c          1 PLM       0.624100
      2 O1          17.9020     4.6540     7.7630 oh         1 PLM      -0.582100
      3 O2          18.6630     6.6120     6.9800 o          1 PLM      -0.488000
      4 C2          20.2170     5.2060     8.1100 c3         1 PLM      -0.178400
      5 C3          20.2340     4.9100     9.5940 c3         1 PLM      -0.077400
      6 C4          20.2980     6.1910    10.4240 c3         1 PLM      -0.086400
      7 C5          19.7850     5.9060    11.8170 c3         1 PLM      -0.076400
      8 C6          20.7240     6.4750    12.8570 c3         1 PLM      -0.077400
      9 C7          21.1350     7.9030    12.5690 c3         1 PLM      -0.080400
     10 C8          21.8350     8.4720    13.7990 c3         1 PLM      -0.078400
     11 C9          22.4270     9.8610    13.6440 c3         1 PLM      -0.079400
     12 CA          23.2060    10.2700    14.8950 c3         1 PLM      -0.077400
     13 CB          23.8190    11.6650    14.8740 c3         1 PLM      -0.078400
     14 CC          24.9500    11.8350    13.8770 c3         1 PLM      -0.079400
     15 CD          26.0980    12.7170    14.3500 c3         1 PLM      -0.078400
     16 CE          27.0700    13.1150    13.2420 c3         1 PLM      -0.078400
     17 CF          28.4970    12.6550    13.5070 c3         1 PLM      -0.080400
     18 CG          29.5550    13.5990    12.9420 c3         1 PLM      -0.093100
     19 HG3         29.4330    13.6780    11.8620 hc         1 PLM       0.032367
     20 HG2         29.4410    14.5850    13.3930 hc         1 PLM       0.032367
     21 HG1         30.5480    13.2100    13.1680 hc         1 PLM       0.032367
     22 HF2         28.6450    12.5580    14.5820 hc         1 PLM       0.038700
     23 HF1         28.6370    11.6640    13.0750 hc         1 PLM       0.038700
     24 HE2         26.7280    12.6920    12.2970 hc         1 PLM       0.039700
     25 HE1         27.0590    14.1990    13.1290 hc         1 PLM       0.039700
     26 HD2         25.6870    13.6200    14.8010 hc         1 PLM       0.038200
     27 HD1         26.6480    12.1920    15.1310 hc         1 PLM       0.038200
     28 HC2         25.3470    10.8500    13.6290 hc         1 PLM       0.041200
     29 HC1         24.5430    12.2560    12.9570 hc         1 PLM       0.041200
     30 HB2         23.0370    12.3890    14.6460 hc         1 PLM       0.038200
     31 HB1         24.1910    11.9010    15.8710 hc         1 PLM       0.038200
     32 HA2         22.5380    10.2010    15.7530 hc         1 PLM       0.038700
     33 HA1         24.0050     9.5460    15.0540 hc         1 PLM       0.038700
     34 H92         23.0870     9.8840    12.7770 hc         1 PLM       0.041700
     35 H91         21.6300    10.5810    13.4570 hc         1 PLM       0.041700
     36 H82         21.1210     8.4930    14.6220 hc         1 PLM       0.038700
     37 H81         22.6340     7.7880    14.0870 hc         1 PLM       0.038700
     38 H72         21.8010     7.9370    11.7070 hc         1 PLM       0.042200
     39 H71         20.2600     8.5040    12.3210 hc         1 PLM       0.042200
     40 H62         20.2430     6.4320    13.8340 hc         1 PLM       0.040700
     41 H61         21.6160     5.8510    12.9130 hc         1 PLM       0.040700
     42 H52         18.7920     6.3390    11.9400 hc         1 PLM       0.038700
     43 H51         19.6840     4.8300    11.9600 hc         1 PLM       0.038700
     44 H42         21.3230     6.5590    10.4690 hc         1 PLM       0.052700
     45 H41         19.6990     6.9720     9.9560 hc         1 PLM       0.052700
     46 H32         19.3410     4.3460     9.8630 hc         1 PLM       0.046200
     47 H31         21.0920     4.2800     9.8300 hc         1 PLM       0.046200
     48 H22         20.6510     4.3670     7.5660 hc         1 PLM       0.078200
     49 H21         20.8400     6.0760     7.9040 hc         1 PLM       0.078200
     50 H           18.3130     4.0870     8.4880 ho         1 PLM       0.423000
@<TRIPOS>BOND
     1     1     2 1   
     2     1     3 2   
     3     1     4 1   
     4     2    50 1   
     5     4     5 1   
     6     4    48 1   
     7     4    49 1   
     8     5     6 1   
     9     5    46 1   
    10     5    47 1   
    11     6     7 1   
    12     6    44 1   
    13     6    45 1   
    14     7     8 1   
    15     7    42 1   
    16     7    43 1   
    17     8     9 1   
    18     8    40 1   
    19     8    41 1   
    20     9    10 1   
    21     9    38 1   
    22     9    39 1   
    23    10    11 1   
    24    10    36 1   
    25    10    37 1   
    26    11    12 1   
    27    11    34 1   
    28    11    35 1   
    29    12    13 1   
    30    12    32 1   
    31    12    33 1   
    32    13    14 1   
    33    13    30 1   
    34    13    31 1   
    35    14    15 1   
    36    14    28 1   
    37    14    29 1   
    38    15    16 1   
    39    15    26 1   
    40    15    27 1   
    41    16    17 1   
    42    16    24 1   
    43    16    25 1   
    44    17    18 1   
    45    17    22 1   
    46    17    23 1   
    47    18    19 1   
    48    18    20 1   
    49    18    21 1   
@<TRIPOS>SUBSTRUCTURE
     1 PLM         1 TEMP              0 ****  ****    0 ROOT
